 Coupled Input File name = roms.in
















 Model Coupling Parallel Threads:




































   Ocean Model MPI nodes:   000 - 023
   CICE Model  MPI nodes:   024 - 025


   Ocean Export: SST:SSS:FRZMLT:u:v:SSH
   CICE Export: AICE:freshAI:fsaltAI:fhocnAI:fswthruAI:strocnx:strocny


  I am Ocean node:            0

 Model Input Parameters:  ROMS/TOMS version 3.7  
                          Thursday - August 3, 2023 -  3:41:50 PM
 -----------------------------------------------------------------------------
  I am Ocean node:            6
  I am Ocean node:            2
  I am Ocean node:            7
  I am Ocean node:            1
  I am Ocean node:            4
  I am Ocean node:            5
  I am Ocean node:           12
  I am Ocean node:           19
  I am Ocean node:           22
  I am Ocean node:            3
  I am Ocean node:            8
  I am Ocean node:           17
  I am Ocean node:           13
  I am Ocean node:           14
  I am CICE node: calling CICE_INITIALIZE:           24
  I am Ocean node:           11
  I am Ocean node:           16
  I am Ocean node:           15
  I am Ocean node:           23
  I am CICE node: calling CICE_INITIALIZE:           25
  I am Ocean node:           18
  I am Ocean node:           21
  I am Ocean node:            9
  I am Ocean node:           10
  I am Ocean node:           20
 Reading zbgc_nml

 ROMS 3.6 - Arctic-20km - Coupled ROMS-CICE

 Operating system : Linux
 CPU/hardware     : x86_64
 Compiler system  : ifort
 Compiler command : /public/software/mpi/mpich-3.2/bin/mpifort
 Compiler flags   : -xHost -g -check bounds -traceback -I/public/home/JCZ11634027/study/work007_METROMS_v6_github/projects_v02/tmpdir/roms_src/../MCT/include -I/public/home/JCZ1163

 Input Script  : 

 SVN Root URL  : https://www.myroms.org/svn/src/trunk
 SVN Revision  : Unversioned directory

 Local Root    : /public/home/JCZ11634027/study/work007_METROMS_v6_github/projects_v02/tmpdir/roms_src
 Header Dir    : /public/home/JCZ11634027/study/work007_METROMS_v6_github/projects_v02/arctic-20km//include
 Header file   : arctic-20km.h
 Analytical Dir: /public/home/JCZ11634027/study/work007_METROMS_v6_github/projects_v02/arctic-20km//include

 Resolution, Grid 01: 0320x0240x035,  Parallel Nodes:  24,  Tiling: 004x006


 Physical Parameters, Grid: 01
 =============================

     262800  ntimes            Number of timesteps for 3-D equations.
   1200.000  dt                Timestep size (s) for 3-D equations.
         20  ndtfast           Number of timesteps for 2-D equations between
                                 each 3D timestep.
          1  ERstr             Starting ensemble/perturbation run number.
          1  ERend             Ending ensemble/perturbation run number.
          0  nrrec             Number of restart records to read from disk.
          F  LcycleRST         Switch to recycle time-records in restart file.
       2160  nRST              Number of timesteps between the writing of data
                                 into restart fields.
          3  ninfo             Number of timesteps between print of information
                                 to standard output.
          T  ldefout           Switch to create a new output NetCDF file(s).
          3  nHIS              Number of timesteps between the writing fields
                                 into history file.
       2160  ndefHIS           Number of timesteps between creation of new
                                 history files.
         72  nQCK              Number of timesteps between the writing fields
                                 into quicksave file.
       2160  ndefQCK           Number of timesteps between creation of new
                                 brief snpashots files.
          1  ntsAVG            Starting timestep for the accumulation of output
                                 time-averaged data.
         72  nAVG              Number of timesteps between the writing of
                                 time-averaged data into averages file.
       2160  ndefAVG           Number of timesteps between creation of new
                                 time-averaged file.
 1.0000E+02  nl_tnu2(01)       NLM Horizontal, harmonic mixing coefficient
                                 (m2/s) for tracer 01: temp
 1.0000E+02  nl_tnu2(02)       NLM Horizontal, harmonic mixing coefficient
                                 (m2/s) for tracer 02: salt
 1.0000E+02  nl_visc2          NLM Horizontal, harmonic mixing coefficient
                                 (m2/s) for momentum.
          F  LuvSponge         Turning OFF sponge on horizontal momentum.
          F  LtracerSponge(01) Turning OFF sponge on tracer 01: temp
          F  LtracerSponge(02) Turning OFF sponge on tracer 02: salt
 1.0000E-06  Akt_bak(01)       Background vertical mixing coefficient (m2/s)
                                 for tracer 01: temp
 1.0000E-06  Akt_bak(02)       Background vertical mixing coefficient (m2/s)
                                 for tracer 02: salt
 5.0000E-06  Akv_bak           Background vertical mixing coefficient (m2/s)
                                 for momentum.
 0.0000E+00  rdrg              Linear bottom drag coefficient (m/s).
 3.0000E-03  rdrg2             Quadratic bottom drag coefficient.
 0.0000E+00  Zob               Bottom roughness (m).
 1.0000E+01  blk_ZQ            Height (m) of surface air humidity measurement.
 1.0000E+01  blk_ZT            Height (m) of surface air temperature measurement.
 1.0000E+01  blk_ZW            Height (m) of surface winds measurement.
          1  lmd_Jwt           Jerlov water type.
          2  Vtransform        S-coordinate transformation equation.
          4  Vstretching       S-coordinate stretching function.
 6.0000E+00  theta_s           S-coordinate surface control parameter.
 1.0000E-01  theta_b           S-coordinate bottom  control parameter.
    100.000  Tcline            S-coordinate surface/bottom layer width (m) used
                                 in vertical coordinate stretching.
   1025.000  rho0              Mean density (kg/m3) for Boussinesq approximation.
      0.000  dstart            Time-stamp assigned to model initialization (days).
19930101.00  time_ref          Reference time for units attribute (yyyymmdd.dd)
 1.5000E+01  Tnudg(01)         Nudging/relaxation time scale (days)
                                 for tracer 01: temp
 1.5000E+01  Tnudg(02)         Nudging/relaxation time scale (days)
                                 for tracer 02: salt
 0.0000E+00  Znudg             Nudging/relaxation time scale (days)
                                 for free-surface.
 5.0000E+00  M2nudg            Nudging/relaxation time scale (days)
                                 for 2D momentum.
 1.5000E+01  M3nudg            Nudging/relaxation time scale (days)
                                 for 3D momentum.
 1.0000E+00  obcfac            Factor between passive and active
                                 open boundary conditions.
 1.0000E+01  iwrknudg          Width of the nudgingzone around the domain.

          F  VolCons(1)        NLM western  edge boundary volume conservation.
          F  VolCons(2)        NLM southern edge boundary volume conservation.
          F  VolCons(3)        NLM eastern  edge boundary volume conservation.
          F  VolCons(4)        NLM northern edge boundary volume conservation.
     10.000  T0                Background potential temperature (C) constant.
     35.000  S0                Background salinity (PSU) constant.
      1.000  gamma2            Slipperiness variable: free-slip (1.0) or 
                                                      no-slip (-1.0).
          T  LuvSrc            Turning ON  momentum point Sources/Sinks.
          F  LwSrc             Turning OFF volume influx point Sources/Sinks.
          F  LtracerSrc(01)    Turning OFF point Sources/Sinks on tracer 01: temp
          T  LtracerSrc(02)    Turning ON  point Sources/Sinks on tracer 02: salt
          F  LsshCLM           Turning OFF processing of SSH climatology.
          F  Lm2CLM            Turning OFF processing of 2D momentum climatology.
          F  Lm3CLM            Turning OFF processing of 3D momentum climatology.
          F  LtracerCLM(01)    Turning OFF processing of climatology tracer 01: temp
          F  LtracerCLM(02)    Turning OFF processing of climatology tracer 02: salt
          F  LnudgeM2CLM       Turning OFF nudging of 2D momentum climatology.
          F  LnudgeM3CLM       Turning OFF nudging of 3D momentum climatology.
          F  LnudgeTCLM(01)    Turning OFF nudging of climatology tracer 01: temp
          F  LnudgeTCLM(02)    Turning OFF nudging of climatology tracer 02: salt

          T  Hout(idFsur)      Write out free-surface.
          T  Hout(idUvel)      Write out 3D U-momentum component.
          T  Hout(idVvel)      Write out 3D V-momentum component.
          T  Hout(idu3dE)      Write out 3D U-wastward  component at RHO-points.
          T  Hout(idv3dN)      Write out 3D V-northward component at RHO-points.
          T  Hout(idTvar)      Write out tracer 01: temp
          T  Hout(idTvar)      Write out tracer 02: salt

          T  Aout(idFsur)      Write out averaged free-surface.
          T  Aout(idUvel)      Write out averaged 3D U-momentum component.
          T  Aout(idVvel)      Write out averaged 3D V-momentum component.
          T  Aout(idu3dE)      Write out averaged 3D U-eastward  at RHO-points.
          T  Aout(idv3dN)      Write out averaged 3D V-northward at RHO-points.
          T  Aout(idTvar)      Write out averaged tracer 01: temp
          T  Aout(idTvar)      Write out averaged tracer 02: salt

 Output/Input Files:

             Output Restart File:  /public/home/JCZ11634027/study/work007_METROMS_v6_github/projects_v02/tmpdir/arctic-20km/dir_output/ocean_rst.nc
        Prefix for History Files:  /public/home/JCZ11634027/study/work007_METROMS_v6_github/projects_v02/tmpdir/arctic-20km/dir_output/ocean_his
       Prefix for Averages Files:  /public/home/JCZ11634027/study/work007_METROMS_v6_github/projects_v02/tmpdir/arctic-20km/dir_output/ocean_avg
        Physical parameters File:  
                 Input Grid File:  /public/home/JCZ11634027/study/work007_METROMS_v6_github/projects_v02/tmpdir/arctic-20km/atmcice/roms_grd.nc
    Input Nonlinear Initial File:  /public/home/JCZ11634027/study/work007_METROMS_v6_github/projects_v02/tmpdir/arctic-20km/atmcice/roms_ini.nc
        Input Sources/Sinks File:  /public/home/JCZ11634027/study/work007_METROMS_v6_github/projects_v02/tmpdir/arctic-20km/atmcice/newA20_rivers_mitya.nc
           Input Forcing File 01:  /public/home/JCZ11634027/study/work007_METROMS_v6_github/projects_v02/tmpdir/arctic-20km/atmcice/roms_blk.nc
           Input Forcing File 02:  /public/home/JCZ11634027/study/work007_METROMS_v6_github/projects_v02/tmpdir/arctic-20km/atmcice/roms_frc.nc
             Input Boundary File:  /public/home/JCZ11634027/study/work007_METROMS_v6_github/projects_v02/tmpdir/arctic-20km/atmcice/roms_bry.nc

 Tile partition information for Grid 01:  0320x0240x0035  tiling: 004x006

     tile     Istr     Iend     Jstr     Jend     Npts

        0        1       80        1       40   112000
        1       81      160        1       40   112000
        2      161      240        1       40   112000
        3      241      320        1       40   112000
        4        1       80       41       80   112000
        5       81      160       41       80   112000
        6      161      240       41       80   112000
        7      241      320       41       80   112000
        8        1       80       81      120   112000
        9       81      160       81      120   112000
       10      161      240       81      120   112000
       11      241      320       81      120   112000
       12        1       80      121      160   112000
       13       81      160      121      160   112000
       14      161      240      121      160   112000
       15      241      320      121      160   112000
       16        1       80      161      200   112000
       17       81      160      161      200   112000
       18      161      240      161      200   112000
       19      241      320      161      200   112000
       20        1       80      201      240   112000
       21       81      160      201      240   112000
       22      161      240      201      240   112000
       23      241      320      201      240   112000

 Tile minimum and maximum fractional coordinates for Grid 01:
   (interior points only)

     tile     Xmin     Xmax     Ymin     Ymax     grid

        0     0.50    80.50     0.50    40.50  RHO-points
        1    80.50   160.50     0.50    40.50  RHO-points
        2   160.50   240.50     0.50    40.50  RHO-points
        3   240.50   320.50     0.50    40.50  RHO-points
        4     0.50    80.50    40.50    80.50  RHO-points
        5    80.50   160.50    40.50    80.50  RHO-points
        6   160.50   240.50    40.50    80.50  RHO-points
        7   240.50   320.50    40.50    80.50  RHO-points
        8     0.50    80.50    80.50   120.50  RHO-points
        9    80.50   160.50    80.50   120.50  RHO-points
       10   160.50   240.50    80.50   120.50  RHO-points
       11   240.50   320.50    80.50   120.50  RHO-points
       12     0.50    80.50   120.50   160.50  RHO-points
       13    80.50   160.50   120.50   160.50  RHO-points
       14   160.50   240.50   120.50   160.50  RHO-points
       15   240.50   320.50   120.50   160.50  RHO-points
       16     0.50    80.50   160.50   200.50  RHO-points
       17    80.50   160.50   160.50   200.50  RHO-points
       18   160.50   240.50   160.50   200.50  RHO-points
       19   240.50   320.50   160.50   200.50  RHO-points
       20     0.50    80.50   200.50   240.50  RHO-points
       21    80.50   160.50   200.50   240.50  RHO-points
       22   160.50   240.50   200.50   240.50  RHO-points
       23   240.50   320.50   200.50   240.50  RHO-points

        0     1.00    80.50     0.50    40.50    U-points
        1    80.50   160.50     0.50    40.50    U-points
        2   160.50   240.50     0.50    40.50    U-points
        3   240.50   320.00     0.50    40.50    U-points
        4     1.00    80.50    40.50    80.50    U-points
        5    80.50   160.50    40.50    80.50    U-points
        6   160.50   240.50    40.50    80.50    U-points
        7   240.50   320.00    40.50    80.50    U-points
        8     1.00    80.50    80.50   120.50    U-points
        9    80.50   160.50    80.50   120.50    U-points
       10   160.50   240.50    80.50   120.50    U-points
       11   240.50   320.00    80.50   120.50    U-points
       12     1.00    80.50   120.50   160.50    U-points
       13    80.50   160.50   120.50   160.50    U-points
       14   160.50   240.50   120.50   160.50    U-points
       15   240.50   320.00   120.50   160.50    U-points
       16     1.00    80.50   160.50   200.50    U-points
       17    80.50   160.50   160.50   200.50    U-points
       18   160.50   240.50   160.50   200.50    U-points
       19   240.50   320.00   160.50   200.50    U-points
       20     1.00    80.50   200.50   240.50    U-points
       21    80.50   160.50   200.50   240.50    U-points
       22   160.50   240.50   200.50   240.50    U-points
       23   240.50   320.00   200.50   240.50    U-points

        0     0.50    80.50     1.00    40.50    V-points
        1    80.50   160.50     1.00    40.50    V-points
        2   160.50   240.50     1.00    40.50    V-points
        3   240.50   320.50     1.00    40.50    V-points
        4     0.50    80.50    40.50    80.50    V-points
        5    80.50   160.50    40.50    80.50    V-points
        6   160.50   240.50    40.50    80.50    V-points
        7   240.50   320.50    40.50    80.50    V-points
        8     0.50    80.50    80.50   120.50    V-points
        9    80.50   160.50    80.50   120.50    V-points
       10   160.50   240.50    80.50   120.50    V-points
       11   240.50   320.50    80.50   120.50    V-points
       12     0.50    80.50   120.50   160.50    V-points
       13    80.50   160.50   120.50   160.50    V-points
       14   160.50   240.50   120.50   160.50    V-points
       15   240.50   320.50   120.50   160.50    V-points
       16     0.50    80.50   160.50   200.50    V-points
       17    80.50   160.50   160.50   200.50    V-points
       18   160.50   240.50   160.50   200.50    V-points
       19   240.50   320.50   160.50   200.50    V-points
       20     0.50    80.50   200.50   240.00    V-points
       21    80.50   160.50   200.50   240.00    V-points
       22   160.50   240.50   200.50   240.00    V-points
       23   240.50   320.50   200.50   240.00    V-points

 Maximum halo size in XI and ETA directions:

               HaloSizeI(1) =     184
               HaloSizeJ(1) =     104
                TileSide(1) =      86
                TileSize(1) =    3956


 Lateral Boundary Conditions: NLM
 ============================

 Variable               Grid  West Edge    South Edge   East Edge    North Edge
 ---------              ----  ----------   ----------   ----------   ----------

 zeta                     1   Chapman Imp  Closed       Chapman Imp  Chapman Imp

 ubar                     1   Flather      Closed       Flather      Flather

 vbar                     1   Flather      Closed       Flather      Flather

 u                        1   Rad + Nud    Closed       Rad + Nud    Rad + Nud

 v                        1   Rad + Nud    Closed       Rad + Nud    Rad + Nud

 temp                     1   Rad + Nud    Closed       Rad + Nud    Rad + Nud

 salt                     1   Rad + Nud    Closed       Rad + Nud    Rad + Nud

 Activated C-preprocessing Options:

 ARCTIC20KM          ROMS 3.6 - Arctic-20km - Coupled ROMS-CICE
 ALBEDO              Shortwave radiation from albedo equation.
 ANA_BSFLUX          Analytical kinematic bottom salinity flux.
 ANA_BTFLUX          Analytical kinematic bottom temperature flux.
 ANA_SRFLUX          Analytical kinematic shortwave radiation flux.
 ASSUMED_SHAPE       Using assumed-shape arrays.
 ATM_PRESS           Impose atmospheric pressure onto sea surface.
 AVERAGES            Writing out time-averaged nonlinear model fields.
 BULK_FLUXES         Surface bulk fluxes parameterization.
 COOL_SKIN           Surface cool skin correction.
 CURVGRID            Orthogonal curvilinear grid.
 DJ_GRADPS           Parabolic Splines density Jacobian (Shchepetkin, 2002).
 DOUBLE_PRECISION    Double precision arithmetic.
 EMINUSP             Compute Salt Flux using E-P.
 HDF5                Creating NetCDF-4/HDF5 format files.
 LMD_BKPP            KPP bottom boundary layer mixing.
 LMD_CONVEC          LMD convective mixing due to shear instability.
 LMD_DDMIX           LMD double-diffusive mixing.
 LMD_MIXING          Large/McWilliams/Doney interior mixing.
 LMD_NONLOCAL        LMD convective nonlocal transport.
 LMD_RIMIX           LMD diffusivity due to shear instability.
 LMD_SHAPIRO         Shapiro filtering boundary layer depth.
 LMD_SKPP            KPP surface boundary layer mixing.
 LONGWAVE            Compute net longwave radiation internally.
 MASKING             Land/Sea masking.
 MCT_LIB             Using Model Coupling Toolkit library.
 MIX_GEO_TS          Mixing of tracers along geopotential surfaces.
 MIX_S_UV            Mixing of momentum along constant S-surfaces.
 MPI                 MPI distributed-memory configuration.
 NONLINEAR           Nonlinear Model.
 NONLIN_EOS          Nonlinear Equation of State for seawater.
 NO_LBC_ATT          Not checking NetCDF global attribute NLM_LBC during restart.
 POWER_LAW           Power-law shape time-averaging barotropic filter.
 PROFILE             Time profiling activated .
 !RST_SINGLE         Double precision fields in restart NetCDF file.
 SALINITY            Using salinity.
 SOLAR_SOURCE        Solar Radiation Source Term.
 SOLVE3D             Solving 3D Primitive Equations.
 TS_A4HADVECTION     Fourth-order Akima horizontal advection of tracers.
 TS_A4VADVECTION     Fourth-order Akima vertical advection of tracers.
 TS_DIF2             Harmonic mixing of tracers.
 UV_ADV              Advection of momentum.
 UV_COR              Coriolis term.
 UV_U3HADVECTION     Third-order upstream horizontal advection of 3D momentum.
 UV_C4VADVECTION     Fourth-order centered vertical advection of momentum.
 UV_QDRAG            Quadratic bottom stress.
 UV_VIS2             Harmonic mixing of momentum.
 VAR_RHO_2D          Variable density barotropic mode.

 Process Information:

 Node #  0 (pid=   65334) is active.
 Node #  4 (pid=   65338) is active.
 Node #  7 (pid=   65341) is active.
 Node #  8 (pid=   65342) is active.
 Node # 13 (pid=   65347) is active.
 Node # 14 (pid=   65348) is active.
 Node # 16 (pid=   65350) is active.
 Node # 11 (pid=   65345) is active.
 Node #  3 (pid=   65337) is active.
 Node # 18 (pid=   65352) is active.
 Node # 19 (pid=   65353) is active.
 Node # 23 (pid=   65357) is active.
 Node # 21 (pid=   65355) is active.
 Node # 22 (pid=   65356) is active.
 Node # 17 (pid=   65351) is active.
 Node # 12 (pid=   65346) is active.
 Node #  1 (pid=   65335) is active.
 Node #  5 (pid=   65339) is active.
 Node # 10 (pid=   65344) is active.
 Node #  9 (pid=   65343) is active.
 Node # 15 (pid=   65349) is active.
 Node #  2 (pid=   65336) is active.
 Node #  6 (pid=   65340) is active.
 Node # 20 (pid=   65354) is active.
  ROMS Ocean Coupler: MCTWorld_init called
  ROMS Ocean Coupler: calling GlobalSegMap_init
 cice2ocn_AV, Exportlist AICE:freshAI:fsaltAI:fhocnAI:fswthruAI:strocnx:strocny
 ocn2cice_AV, Exportlist SST:SSS:FRZMLT:u:v:SSH
  ROMS Ocean Coupler: calling Router_init. Done

 INITIAL: Configuring and initializing forward nonlinear model ...
 *******

 Vertical S-coordinate System, Grid 01:

 level   S-coord     Cs-curve   Z   at hmin       at hc    half way     at hmax

    35   0.0000000   0.0000000        0.000       0.000       0.000       0.000
    34  -0.0285714  -0.0000771       -0.260      -1.432      -2.919      -3.158
    33  -0.0571429  -0.0003107       -0.520      -2.873      -6.195      -7.045
    32  -0.0857143  -0.0007077       -0.780      -4.321      -9.845     -11.693
    31  -0.1142857  -0.0012798       -1.040      -5.778     -13.896     -17.157
    30  -0.1428571  -0.0020437       -1.301      -7.245     -18.386     -23.514
    29  -0.1714286  -0.0030219       -1.561      -8.723     -23.366     -30.871
    28  -0.2000000  -0.0042433       -1.822     -10.212     -28.902     -39.360
    27  -0.2285714  -0.0057436       -2.083     -11.716     -35.077     -49.149
    26  -0.2571429  -0.0075669       -2.345     -13.235     -41.991     -60.444
    25  -0.2857143  -0.0097669       -2.606     -14.774     -49.766     -73.493
    24  -0.3142857  -0.0124079       -2.868     -16.335     -58.550     -88.597
    23  -0.3428571  -0.0155675       -3.131     -17.921     -68.521    -106.118
    22  -0.3714286  -0.0193383       -3.394     -19.538     -79.889    -126.487
    21  -0.4000000  -0.0238305       -3.658     -21.192     -92.909    -150.217
    20  -0.4285714  -0.0291756       -3.923     -22.887    -107.879    -177.921
    19  -0.4571429  -0.0355294       -4.188     -24.634    -125.158    -210.326
    18  -0.4857143  -0.0430773       -4.455     -26.440    -145.168    -248.294
    17  -0.5142857  -0.0520386       -4.723     -28.316    -168.411    -292.848
    16  -0.5428571  -0.0626734       -4.992     -30.277    -195.484    -345.200
    15  -0.5714286  -0.0752894       -5.263     -32.336    -227.088    -406.784
    14  -0.6000000  -0.0902501       -5.537     -34.513    -264.057    -479.293
    13  -0.6285714  -0.1079852       -5.812     -36.828    -307.374    -564.729
    12  -0.6571429  -0.1290014       -6.091     -39.307    -358.197    -665.454
    11  -0.6857143  -0.1538957       -6.374     -41.981    -417.892    -784.250
    10  -0.7142857  -0.1833705       -6.660     -44.883    -488.066    -924.388
     9  -0.7428571  -0.2182504       -6.952     -48.055    -570.606   -1089.713
     8  -0.7714286  -0.2595019       -7.249     -51.547    -667.722   -1284.725
     7  -0.8000000  -0.3082543       -7.553     -55.413    -782.000   -1514.690
     6  -0.8285714  -0.3658238       -7.865     -59.720    -916.449   -1785.738
     5  -0.8571429  -0.4337383       -8.187     -64.544   -1074.565   -2104.990
     4  -0.8857143  -0.5137637       -8.519     -69.974   -1260.388   -2480.673
     3  -0.9142857  -0.6079299       -8.864     -76.111   -1478.563   -2922.247
     2  -0.9428571  -0.7185549       -9.225     -83.071   -1734.392   -3440.512
     1  -0.9714286  -0.8482639       -9.602     -90.985   -2033.880   -4047.700
     0  -1.0000000  -1.0000000      -10.000    -100.000   -2383.763   -4757.525

 Time Splitting Weights for Grid 01:    ndtfast =  20    nfast =  29
 ==================================

    Primary            Secondary            Accumulated to Current Step

  1-0.0009651193358779 0.0500000000000000-0.0009651193358779 0.0500000000000000
  2-0.0013488780126037 0.0500482559667939-0.0023139973484816 0.1000482559667939
  3-0.0011514592651644 0.0501156998674241-0.0034654566136460 0.1501639558342180
  4-0.0003735756740661 0.0501732728306823-0.0038390322877121 0.2003372286649003
  5 0.0009829200513762 0.0501919516143856-0.0028561122363360 0.2505291802792859
  6 0.0029141799764308 0.0501428056118168 0.0000580677400949 0.3006719858911027
  7 0.0054132615310267 0.0499970966129953 0.0054713292711215 0.3506690825040980
  8 0.0084687837865132 0.0497264335364439 0.0139401130576347 0.4003955160405419
  9 0.0120633394191050 0.0493029943471183 0.0260034524767397 0.4496985103876602
 10 0.0161716623600090 0.0486998273761630 0.0421751148367487 0.4983983377638232
 11 0.0207585511322367 0.0478912442581626 0.0629336659689854 0.5462895820219857
 12 0.0257765478740990 0.0468533167015507 0.0887102138430844 0.5931428987235364
 13 0.0311633730493853 0.0455644893078458 0.1198735868924697 0.6387073880313822
 14 0.0368391158442262 0.0440063206553765 0.1567127027366959 0.6827137086867586
 15 0.0427031802506397 0.0421643648631652 0.1994158829873356 0.7248780735499238
 16 0.0486309868367616 0.0400292058506332 0.2480468698240972 0.7649072794005570
 17 0.0544704302037592 0.0375976565087951 0.3025173000278564 0.8025049359093521
 18 0.0600380921294286 0.0348741349986072 0.3625553921572849 0.8373790709079593
 19 0.0651152103984763 0.0318722303921357 0.4276706025557612 0.8692513013000950
 20 0.0694434033194839 0.0286164698722119 0.4971140058752452 0.8978677711723069
 21 0.0727201499285570 0.0251442997062377 0.5698341558038021 0.9230120708785446
 22 0.0745940258796570 0.0215082922098099 0.6444281816834592 0.9445203630883545
 23 0.0746596950216180 0.0177785909158270 0.7190878767050772 0.9622989540041815
 24 0.0724526566618460 0.0140456061647461 0.7915405333669232 0.9763445601689277
 25 0.0674437485167025 0.0104229733316538 0.8589842818836257 0.9867675335005816
 26 0.0590334053485720 0.0070507859058187 0.9180176872321977 0.9938183194064003
 27 0.0465456732896124 0.0040991156383901 0.9645633605218101 0.9979174350447905
 28 0.0292219798521903 0.0017718319739095 0.9937853403740005 0.9996892670187000
 29 0.0062146596259994 0.0003107329813000 0.9999999999999999 1.0000000000000000

 ndtfast, nfast =   20  29   nfast/ndtfast =  1.45000

 Centers of gravity and integrals (values must be 1, 1, approx 1/2, 1, 1):

    1.000000000000 1.060707743385 0.530353871693 1.000000000000 1.000000000000

 Power filter parameters, Fgamma, gamma =  0.28400   0.14200

 Metrics information for Grid 01:
 ===============================

 Minimum X-grid spacing, DXmin =  1.82977849E+01 km
 Maximum X-grid spacing, DXmax =  2.14359202E+01 km
 Minimum Y-grid spacing, DYmin =  1.82977825E+01 km
 Maximum Y-grid spacing, DYmax =  2.14359202E+01 km
 Minimum Z-grid spacing, DZmin =  2.59810366E-01 m
 Maximum Z-grid spacing, DZmax =  7.09825476E+02 m

 Minimum barotropic Courant Number =  4.21058407E-02
 Maximum barotropic Courant Number =  9.69106516E-01
 Maximum Coriolis   Courant Number =  1.74532755E-01


 NLM: GET_STATE - Read state initial conditions,             t =     0 00:00:00
                   (Grid 01, File: roms_ini.nc, Rec=0001, Index=1)
                - free-surface
                   (Min =  0.00000000E+00 Max =  0.00000000E+00)
                - vertically integrated u-momentum component
                   (Min =  0.00000000E+00 Max =  0.00000000E+00)
                - vertically integrated v-momentum component
                   (Min =  0.00000000E+00 Max =  0.00000000E+00)
